Version 4
SHEET 1 1572 804
WIRE 1040 -160 992 -160
WIRE -256 -48 -320 -48
WIRE -256 -32 -256 -48
WIRE 992 -32 992 -160
WIRE 1040 -32 992 -32
WIRE 1168 16 976 16
WIRE 1040 48 1040 -32
WIRE 976 64 976 16
WIRE 1008 64 976 64
WIRE -320 80 -320 -48
WIRE -256 80 -320 80
WIRE 1168 80 1168 16
WIRE 1168 80 1072 80
WIRE 1184 80 1168 80
WIRE 1408 80 1264 80
WIRE 96 96 96 64
WIRE 144 96 96 96
WIRE 240 96 224 96
WIRE 464 96 432 96
WIRE 1008 96 624 96
WIRE 272 128 272 112
WIRE 272 128 144 128
WIRE -640 160 -736 160
WIRE 144 160 144 128
WIRE 96 176 96 96
WIRE 112 176 96 176
WIRE 544 176 544 96
WIRE -736 192 -736 160
WIRE -640 192 -640 160
WIRE -592 192 -640 192
WIRE -464 192 -464 176
WIRE 240 192 240 96
WIRE 240 192 176 192
WIRE 432 192 432 96
WIRE 432 192 240 192
WIRE 1040 192 1040 112
WIRE 1040 192 992 192
WIRE 112 208 16 208
WIRE -256 240 -256 80
WIRE -288 256 -416 256
WIRE 1408 272 1408 80
WIRE -288 288 -336 288
WIRE 544 288 544 240
WIRE 944 288 544 288
WIRE 144 304 144 224
WIRE 144 304 64 304
WIRE 992 304 992 192
WIRE 1040 304 992 304
WIRE 16 336 16 208
WIRE 16 336 -48 336
WIRE -736 352 -896 352
WIRE -592 352 -736 352
WIRE -496 352 -592 352
WIRE -416 352 -416 256
WIRE -416 352 -496 352
WIRE 544 352 544 288
WIRE 944 368 944 288
WIRE 1168 368 1168 80
WIRE 1168 368 944 368
WIRE -336 384 -336 368
WIRE -288 384 -336 384
WIRE 1408 384 1408 336
WIRE -288 416 -336 416
WIRE -336 432 -336 416
WIRE -896 448 -896 352
WIRE -496 448 -496 352
WIRE -480 448 -496 448
WIRE 64 448 64 304
WIRE 160 448 160 416
WIRE 160 448 64 448
WIRE 16 480 16 336
WIRE 464 480 464 96
WIRE 480 480 464 480
WIRE 544 480 544 432
WIRE 624 480 624 96
WIRE 624 480 608 480
WIRE -896 592 -896 528
WIRE -816 592 -896 592
WIRE -480 592 -480 528
WIRE -480 592 -816 592
WIRE 16 592 16 560
WIRE -256 656 -256 432
WIRE -256 656 -304 656
WIRE -304 800 -304 656
WIRE -272 800 -272 784
WIRE -272 800 -304 800
FLAG -816 592 0
FLAG -640 192 0
FLAG 16 592 0
FLAG 1408 384 0
FLAG -256 48 0
FLAG -272 704 0
FLAG 352 112 0
FLAG 160 336 0
FLAG -176 400 0
FLAG -336 432 0
FLAG 1040 -80 0
FLAG 1040 224 0
FLAG 96 -16 0
SYMBOL voltage -896 432 R0
WINDOW 3 24 44 Left 0
SYMATTR Value PWL REPEAT FOREVER( file="C:\Users\switi\Downloads\data.txt")ENDREPEAT
SYMATTR InstName V1
SYMBOL res -496 432 R0
SYMATTR InstName R1
SYMATTR Value 1k
SYMBOL voltage -736 176 R0
WINDOW 123 0 0 Left 0
WINDOW 39 0 0 Left 0
WINDOW 3 24 96 Left 0
SYMATTR Value SINE(0 0.5 0.5 0 0 0 10)
SYMATTR InstName V2
SYMBOL voltage -592 176 R0
WINDOW 123 0 0 Left 0
WINDOW 39 0 0 Left 0
WINDOW 3 24 96 Left 0
SYMATTR Value SINE(0 0.5 50 0 0 0 10)
SYMATTR InstName V3
SYMBOL res -752 256 R0
SYMATTR InstName R2
SYMATTR Value 1000K
SYMBOL res -608 256 R0
SYMATTR InstName R3
SYMATTR Value 1000K
SYMBOL cap -48 320 R90
WINDOW 0 0 32 VBottom 2
WINDOW 3 32 32 VTop 2
SYMATTR InstName C1
SYMATTR Value 0.000001
SYMBOL res 0 464 R0
SYMATTR InstName R4
SYMATTR Value 320K
SYMBOL res 1280 64 R90
WINDOW 0 0 56 VBottom 2
WINDOW 3 32 56 VTop 2
SYMATTR InstName R5
SYMATTR Value 10K
SYMBOL cap 1392 272 R0
SYMATTR InstName C2
SYMATTR Value 0.000000354
SYMBOL OpAmps\\AD8221 -256 336 R0
SYMATTR InstName U1
SYMBOL voltage -256 -48 R0
SYMATTR InstName V4
SYMATTR Value 15
SYMBOL voltage -272 688 R0
WINDOW 123 0 0 Left 0
WINDOW 39 0 0 Left 0
SYMATTR InstName V5
SYMATTR Value 15
SYMBOL res -352 272 R0
SYMATTR InstName R6
SYMATTR Value 2.63k
SYMBOL voltage 256 112 R270
WINDOW 0 32 56 VTop 2
WINDOW 3 -32 56 VBottom 2
SYMATTR InstName V6
SYMATTR Value 15
SYMBOL voltage 160 320 R0
SYMATTR InstName V7
SYMATTR Value 15
SYMBOL res 240 80 R90
WINDOW 0 0 56 VBottom 2
WINDOW 3 32 56 VTop 2
SYMATTR InstName R7
SYMATTR Value 49K
SYMBOL res 80 -32 R0
SYMATTR InstName R8
SYMATTR Value 1k
SYMBOL OpAmps\\LT1013 144 128 R0
SYMATTR InstName U2
SYMBOL OpAmps\\LT1013 1040 16 R0
SYMATTR InstName U3
SYMBOL res 560 80 R90
WINDOW 0 0 56 VBottom 2
WINDOW 3 32 56 VTop 2
SYMATTR InstName R9
SYMATTR Value 10K
SYMBOL res 640 80 R90
WINDOW 0 0 56 VBottom 2
WINDOW 3 32 56 VTop 2
SYMATTR InstName R10
SYMATTR Value 10K
SYMBOL cap 528 176 R0
SYMATTR InstName C3
SYMATTR Value 50µf
SYMBOL res 528 336 R0
SYMATTR InstName R11
SYMATTR Value 5K
SYMBOL cap 544 464 R90
WINDOW 0 0 32 VBottom 2
WINDOW 3 32 32 VTop 2
SYMATTR InstName C4
SYMATTR Value 100µf
SYMBOL cap 608 464 R90
WINDOW 0 0 32 VBottom 2
WINDOW 3 32 32 VTop 2
SYMATTR InstName C5
SYMATTR Value 100µf
SYMBOL voltage 1040 -176 R0
SYMATTR InstName V8
SYMATTR Value 15
SYMBOL voltage 1040 208 R0
SYMATTR InstName V9
SYMATTR Value 15
TEXT -808 512 Left 2 !.tran 10s
TEXT -688 400 Left 2 ;source
TEXT -312 464 Left 2 ;Instrumentation amplifier
TEXT 152 264 Left 2 ;second stage amplification
TEXT -32 632 Left 2 ;High pass filter
TEXT 704 408 Left 2 ;Notch Filter
TEXT 1232 168 Left 2 ;Low pass filter
